Circuit: * C:\Users\emman\OneDrive\Desktop\Acads\EEE148\Simulation 1\rc_circuit.asc


Date: Mon Feb 14 23:52:03 2022
Total elapsed time: 0.032 seconds.

tnom = 27
temp = 27
method = trap
totiter = 0
traniter = 0
tranpoints = 0
accept = 0
rejected = 0
matrix size = 3
fillins = 1
solver = Normal

