Circuit: * C:\Users\emman\OneDrive\Desktop\Acads\EEE148\Simulation 1\Sim_1_4.asc

.OP point found by inspection.

Date: Mon Feb 14 23:44:56 2022
Total elapsed time: 0.031 seconds.

tnom = 27
temp = 27
method = modified trap
totiter = 786
traniter = 786
tranpoints = 278
accept = 191
rejected = 87
matrix size = 4
fillins = 0
solver = Normal
Matrix Compiler1: 100 bytes object code size  0.0/0.0/[0.0]
Matrix Compiler2: off  [0.0]/0.0/0.0

