Circuit: * C:\Users\emman\OneDrive\Desktop\Acads\EEE148\Simulation 1\Sim_1.asc

.OP point found by inspection.

Date: Mon Feb 14 23:39:37 2022
Total elapsed time: 0.043 seconds.

tnom = 27
temp = 27
method = modified trap
totiter = 1421
traniter = 1421
tranpoints = 609
accept = 572
rejected = 37
matrix size = 4
fillins = 0
solver = Normal
Matrix Compiler1: 100 bytes object code size  0.0/0.0/[0.0]
Matrix Compiler2: off  [0.0]/0.0/0.1

