Circuit: * C:\Users\emman\OneDrive\Desktop\Acads\EEE148\Simulation 1\Sim_1_2.asc

.OP point found by inspection.

Date: Mon Feb 14 23:42:12 2022
Total elapsed time: 0.062 seconds.

tnom = 27
temp = 27
method = modified trap
totiter = 785
traniter = 785
tranpoints = 279
accept = 188
rejected = 91
matrix size = 4
fillins = 0
solver = Normal
Matrix Compiler1: 118 bytes object code size  0.0/0.0/[0.0]
Matrix Compiler2: 242 bytes object code size  0.0/0.0/[0.0]

