Circuit: * C:\Users\emman\OneDrive\Desktop\Acads\EEE148\Sim_1.asc

.OP point found by inspection.

Date: Mon Feb 14 02:28:51 2022
Total elapsed time: 0.047 seconds.

tnom = 27
temp = 27
method = modified trap
totiter = 2806
traniter = 2806
tranpoints = 1201
accept = 1126
rejected = 75
matrix size = 4
fillins = 0
solver = Normal
Matrix Compiler1: 100 bytes object code size  0.0/0.0/[0.0]
Matrix Compiler2: 248 bytes object code size  0.0/0.0/[0.0]

