Circuit: * C:\Users\emman\OneDrive\Desktop\Acads\EEE148\Simulation 1\Sim_1_3.asc

.OP point found by inspection.


Measurement "peak" FAIL'ed


Date: Mon Feb 14 16:13:07 2022
Total elapsed time: 0.157 seconds.

tnom = 27
temp = 27
method = modified trap
totiter = 683
traniter = 683
tranpoints = 226
accept = 152
rejected = 74
matrix size = 4
fillins = 0
solver = Normal
Matrix Compiler1: 136 bytes object code size  0.1/0.0/[0.0]
Matrix Compiler2: 236 bytes object code size  0.0/0.0/[0.0]

